%nprocs=8
%mem=1000MB
# BLYP/3-21G Force 
Gfinput IOP(6/7=3) GFPrint Pop=full

current calculation

0,1
O         0.000000000000      0.000000000000      0.000000000000
H         0.757540799646     -0.587079599744      0.000000000000
H        -0.757540799646     -0.587079599744      0.000000000000

